
OS:Version,
  {4248754e-2211-405f-b2ed-a82fb3dc03a2}, !- Handle
  2.4.0;                                  !- Version Identifier

OS:RunPeriod,
  {7b7fec80-9448-4af6-aaed-58d0d8183867}, !- Handle
  Run Period 1,                           !- Name
  7,                                      !- Begin Month
  6,                                      !- Begin Day of Month
  7,                                      !- End Month
  12,                                     !- End Day of Month
  ,                                       !- Use Weather File Holidays and Special Days
  ,                                       !- Use Weather File Daylight Saving Period
  ,                                       !- Apply Weekend Holiday Rule
  ,                                       !- Use Weather File Rain Indicators
  ,                                       !- Use Weather File Snow Indicators
  ;                                       !- Number of Times Runperiod to be Repeated

OS:Timestep,
  {78ad7e5d-47c4-4386-a2c2-741525359358}, !- Handle
  6;                                      !- Number of Timesteps per Hour

OS:Building,
  {bdc7215c-015e-4e34-99e4-4e557751fb49}, !- Handle
  Building 1,                             !- Name
  ,                                       !- Building Sector Type
  0,                                      !- North Axis {deg}
  ,                                       !- Nominal Floor to Floor Height {m}
  ,                                       !- Space Type Name
  ,                                       !- Default Construction Set Name
  ;                                       !- Default Schedule Set Name

OS:Site,
  {ec999f51-7e0c-4cdc-873b-7ec0254d0fa2}, !- Handle
  Boston Logan IntL Arpt	USA,             !- Name
  42.37,                                  !- Latitude {deg}
  -71.02,                                 !- Longitude {deg}
  -5,                                     !- Time Zone {hr}
  6,                                      !- Elevation {m}
  City;                                   !- Terrain

OS:WeatherFile,
  {b22c467d-9f20-43f1-8645-ab90e64ee60f}, !- Handle
  Boston Logan IntL Arpt,                 !- City
  MA,                                     !- State Province Region
  USA,                                    !- Country
  TMY3,                                   !- Data Source
  725090,                                 !- WMO Number
  42.37,                                  !- Latitude {deg}
  -71.02,                                 !- Longitude {deg}
  -5,                                     !- Time Zone {hr}
  6,                                      !- Elevation {m}
  file:///c:/ladybug/USA_MA_Boston-Logan.Intl.AP.725090_TMY3/USA_MA_Boston-Logan.Intl.AP.725090_TMY3.epw, !- Url
  B65824C3;                               !- Checksum

OS:SimulationControl,
  {918bec60-93b9-4b81-ac37-b2a5a5b45671}, !- Handle
  Yes,                                    !- Do Zone Sizing Calculation
  Yes,                                    !- Do System Sizing Calculation
  Yes,                                    !- Do Plant Sizing Calculation
  No,                                     !- Run Simulation for Sizing Periods
  Yes,                                    !- Run Simulation for Weather File Run Periods
  ,                                       !- Loads Convergence Tolerance Value
  ,                                       !- Temperature Convergence Tolerance Value {deltaC}
  FullInteriorAndExteriorWithReflections; !- Solar Distribution

OS:ShadowCalculation,
  {62023a4c-374a-4ec3-8365-eff959cbb855}, !- Handle
  30,                                     !- Calculation Frequency
  3000;                                   !- Maximum Figures in Shadow Overlap Calculations

OS:Sizing:Parameters,
  {191ae2a9-47e7-484e-bd46-01b9e8559d12}, !- Handle
  1.25,                                   !- Heating Sizing Factor
  1.15;                                   !- Cooling Sizing Factor

OS:SizingPeriod:DesignDay,
  {2f6085dd-44a4-4dd8-9528-225561fa2225}, !- Handle
  Boston Logan IntL Arpt Ann Htg 99.6% Condns DB, !- Name
  -13.6,                                  !- Maximum Dry-Bulb Temperature {C}
  0,                                      !- Daily Dry-Bulb Temperature Range {deltaC}
  -13.6,                                  !- Humidity Indicating Conditions at Maximum Dry-Bulb
  101253,                                 !- Barometric Pressure {Pa}
  7.2,                                    !- Wind Speed {m/s}
  320,                                    !- Wind Direction {deg}
  0,                                      !- Sky Clearness
  0,                                      !- Rain Indicator
  0,                                      !- Snow Indicator
  21,                                     !- Day of Month
  1,                                      !- Month
  WinterDesignDay,                        !- Day Type
  0,                                      !- Daylight Saving Time Indicator
  Wetbulb,                                !- Humidity Indicating Type
  ,                                       !- Humidity Indicating Day Schedule Name
  DefaultMultipliers,                     !- Dry-Bulb Temperature Range Modifier Type
  ,                                       !- Dry-Bulb Temperature Range Modifier Schedule Name
  ASHRAEClearSky;                         !- Solar Model Indicator

OS:SizingPeriod:DesignDay,
  {73a246a6-2fac-4862-8fd4-a2af1402cb18}, !- Handle
  Boston Logan IntL Arpt Ann Hum_n 99.6% Condns DP=>MCDB, !- Name
  -12,                                    !- Maximum Dry-Bulb Temperature {C}
  0,                                      !- Daily Dry-Bulb Temperature Range {deltaC}
  -24.4,                                  !- Humidity Indicating Conditions at Maximum Dry-Bulb
  101253,                                 !- Barometric Pressure {Pa}
  7.2,                                    !- Wind Speed {m/s}
  320,                                    !- Wind Direction {deg}
  0,                                      !- Sky Clearness
  0,                                      !- Rain Indicator
  0,                                      !- Snow Indicator
  21,                                     !- Day of Month
  1,                                      !- Month
  WinterDesignDay,                        !- Day Type
  0,                                      !- Daylight Saving Time Indicator
  Dewpoint,                               !- Humidity Indicating Type
  ,                                       !- Humidity Indicating Day Schedule Name
  DefaultMultipliers,                     !- Dry-Bulb Temperature Range Modifier Type
  ,                                       !- Dry-Bulb Temperature Range Modifier Schedule Name
  ASHRAEClearSky;                         !- Solar Model Indicator

OS:SizingPeriod:DesignDay,
  {8a817198-7195-4cc2-95e9-d1abcf9a8d33}, !- Handle
  Boston Logan IntL Arpt Ann Htg Wind 99.6% Condns WS=>MCDB, !- Name
  2.1,                                    !- Maximum Dry-Bulb Temperature {C}
  0,                                      !- Daily Dry-Bulb Temperature Range {deltaC}
  2.1,                                    !- Humidity Indicating Conditions at Maximum Dry-Bulb
  101253,                                 !- Barometric Pressure {Pa}
  14.1,                                   !- Wind Speed {m/s}
  320,                                    !- Wind Direction {deg}
  0,                                      !- Sky Clearness
  0,                                      !- Rain Indicator
  0,                                      !- Snow Indicator
  21,                                     !- Day of Month
  1,                                      !- Month
  WinterDesignDay,                        !- Day Type
  0,                                      !- Daylight Saving Time Indicator
  Wetbulb,                                !- Humidity Indicating Type
  ,                                       !- Humidity Indicating Day Schedule Name
  DefaultMultipliers,                     !- Dry-Bulb Temperature Range Modifier Type
  ,                                       !- Dry-Bulb Temperature Range Modifier Schedule Name
  ASHRAEClearSky;                         !- Solar Model Indicator

OS:SizingPeriod:DesignDay,
  {c433600d-e56f-4f78-beaa-abce693d22d9}, !- Handle
  Boston Logan IntL Arpt Ann Clg .4% Condns DB=>MWB, !- Name
  32.7,                                   !- Maximum Dry-Bulb Temperature {C}
  8.4,                                    !- Daily Dry-Bulb Temperature Range {deltaC}
  22.9,                                   !- Humidity Indicating Conditions at Maximum Dry-Bulb
  101253,                                 !- Barometric Pressure {Pa}
  6.3,                                    !- Wind Speed {m/s}
  270,                                    !- Wind Direction {deg}
  0,                                      !- Sky Clearness
  0,                                      !- Rain Indicator
  0,                                      !- Snow Indicator
  21,                                     !- Day of Month
  7,                                      !- Month
  SummerDesignDay,                        !- Day Type
  0,                                      !- Daylight Saving Time Indicator
  Wetbulb,                                !- Humidity Indicating Type
  ,                                       !- Humidity Indicating Day Schedule Name
  DefaultMultipliers,                     !- Dry-Bulb Temperature Range Modifier Type
  ,                                       !- Dry-Bulb Temperature Range Modifier Schedule Name
  ASHRAETau,                              !- Solar Model Indicator
  ,                                       !- Beam Solar Day Schedule Name
  ,                                       !- Diffuse Solar Day Schedule Name
  0.488,                                  !- ASHRAE Taub {dimensionless}
  1.95;                                   !- ASHRAE Taud {dimensionless}

OS:SizingPeriod:DesignDay,
  {868f8627-d0f5-4967-a163-d7ba11ae826a}, !- Handle
  Boston Logan IntL Arpt Ann Clg .4% Condns WB=>MDB, !- Name
  30.2,                                   !- Maximum Dry-Bulb Temperature {C}
  8.4,                                    !- Daily Dry-Bulb Temperature Range {deltaC}
  24.6,                                   !- Humidity Indicating Conditions at Maximum Dry-Bulb
  101253,                                 !- Barometric Pressure {Pa}
  6.3,                                    !- Wind Speed {m/s}
  270,                                    !- Wind Direction {deg}
  0,                                      !- Sky Clearness
  0,                                      !- Rain Indicator
  0,                                      !- Snow Indicator
  21,                                     !- Day of Month
  7,                                      !- Month
  SummerDesignDay,                        !- Day Type
  0,                                      !- Daylight Saving Time Indicator
  Wetbulb,                                !- Humidity Indicating Type
  ,                                       !- Humidity Indicating Day Schedule Name
  DefaultMultipliers,                     !- Dry-Bulb Temperature Range Modifier Type
  ,                                       !- Dry-Bulb Temperature Range Modifier Schedule Name
  ASHRAETau,                              !- Solar Model Indicator
  ,                                       !- Beam Solar Day Schedule Name
  ,                                       !- Diffuse Solar Day Schedule Name
  0.488,                                  !- ASHRAE Taub {dimensionless}
  1.95;                                   !- ASHRAE Taud {dimensionless}

OS:SizingPeriod:DesignDay,
  {dfe452a6-9144-4c2e-8c67-0f14c920d68d}, !- Handle
  Boston Logan IntL Arpt Ann Clg .4% Condns DP=>MDB, !- Name
  27.3,                                   !- Maximum Dry-Bulb Temperature {C}
  8.4,                                    !- Daily Dry-Bulb Temperature Range {deltaC}
  22.8,                                   !- Humidity Indicating Conditions at Maximum Dry-Bulb
  101253,                                 !- Barometric Pressure {Pa}
  6.3,                                    !- Wind Speed {m/s}
  270,                                    !- Wind Direction {deg}
  0,                                      !- Sky Clearness
  0,                                      !- Rain Indicator
  0,                                      !- Snow Indicator
  21,                                     !- Day of Month
  7,                                      !- Month
  SummerDesignDay,                        !- Day Type
  0,                                      !- Daylight Saving Time Indicator
  Dewpoint,                               !- Humidity Indicating Type
  ,                                       !- Humidity Indicating Day Schedule Name
  DefaultMultipliers,                     !- Dry-Bulb Temperature Range Modifier Type
  ,                                       !- Dry-Bulb Temperature Range Modifier Schedule Name
  ASHRAETau,                              !- Solar Model Indicator
  ,                                       !- Beam Solar Day Schedule Name
  ,                                       !- Diffuse Solar Day Schedule Name
  0.488,                                  !- ASHRAE Taub {dimensionless}
  1.95;                                   !- ASHRAE Taud {dimensionless}

OS:SizingPeriod:DesignDay,
  {904b248c-b615-4f36-8c4b-d2c1902d8bf2}, !- Handle
  Boston Logan IntL Arpt Ann Clg .4% Condns Enth=>MDB, !- Name
  30.6,                                   !- Maximum Dry-Bulb Temperature {C}
  8.4,                                    !- Daily Dry-Bulb Temperature Range {deltaC}
  74100,                                  !- Humidity Indicating Conditions at Maximum Dry-Bulb
  101253,                                 !- Barometric Pressure {Pa}
  6.3,                                    !- Wind Speed {m/s}
  270,                                    !- Wind Direction {deg}
  0,                                      !- Sky Clearness
  0,                                      !- Rain Indicator
  0,                                      !- Snow Indicator
  21,                                     !- Day of Month
  7,                                      !- Month
  SummerDesignDay,                        !- Day Type
  0,                                      !- Daylight Saving Time Indicator
  Enthalpy,                               !- Humidity Indicating Type
  ,                                       !- Humidity Indicating Day Schedule Name
  DefaultMultipliers,                     !- Dry-Bulb Temperature Range Modifier Type
  ,                                       !- Dry-Bulb Temperature Range Modifier Schedule Name
  ASHRAETau,                              !- Solar Model Indicator
  ,                                       !- Beam Solar Day Schedule Name
  ,                                       !- Diffuse Solar Day Schedule Name
  0.488,                                  !- ASHRAE Taub {dimensionless}
  1.95;                                   !- ASHRAE Taud {dimensionless}

OS:BuildingStory,
  {385724f3-1393-46ab-8940-6615d5f71607}, !- Handle
  Building Story 1,                       !- Name
  0,                                      !- Nominal Z Coordinate {m}
  ,                                       !- Nominal Floor to Floor Height {m}
  ,                                       !- Default Construction Set Name
  ,                                       !- Default Schedule Set Name
  ;                                       !- Group Rendering Name

OS:Material,
  {653e574f-86a4-497a-aa9c-168a15c7d8a2}, !- Handle
  F16 Acoustic tile,                      !- Name
  MediumSmooth,                           !- Roughness
  0.0191,                                 !- Thickness {m}
  0.06,                                   !- Conductivity {W/m-K}
  368,                                    !- Density {kg/m3}
  590.000000000002,                       !- Specific Heat {J/kg-K}
  0.9,                                    !- Thermal Absorptance
  0.3;                                    !- Solar Absorptance

OS:Material:AirGap,
  {f98a39d5-8ebe-4233-96e5-529793dfd038}, !- Handle
  Material Air Gap 1,                     !- Name
  0.18;                                   !- Thermal Resistance {m2-K/W}

OS:Material,
  {b04b16ba-5011-4218-b9e4-db859a46c159}, !- Handle
  M11 100mm lightweight concrete,         !- Name
  MediumRough,                            !- Roughness
  0.1016,                                 !- Thickness {m}
  0.53,                                   !- Conductivity {W/m-K}
  1280,                                   !- Density {kg/m3}
  840.000000000002,                       !- Specific Heat {J/kg-K}
  0.9,                                    !- Thermal Absorptance
  0.5;                                    !- Solar Absorptance

OS:Construction,
  {397a0880-1d17-4622-bfea-26fbb99770ba}, !- Handle
  Interior Floor,                         !- Name
  ,                                       !- Surface Rendering Name
  {653e574f-86a4-497a-aa9c-168a15c7d8a2}, !- Layer 1
  {f98a39d5-8ebe-4233-96e5-529793dfd038}, !- Layer 2
  {b04b16ba-5011-4218-b9e4-db859a46c159}; !- Layer 3

OS:Construction,
  {d09f5c5e-59fd-471b-b552-8544dacb3b58}, !- Handle
  Interior Ceiling,                       !- Name
  ,                                       !- Surface Rendering Name
  {b04b16ba-5011-4218-b9e4-db859a46c159}, !- Layer 1
  {f98a39d5-8ebe-4233-96e5-529793dfd038}, !- Layer 2
  {653e574f-86a4-497a-aa9c-168a15c7d8a2}; !- Layer 3

OS:Material,
  {6091bc7f-85dc-4b70-8da1-88add63e3ca6}, !- Handle
  G01a 19mm gypsum board,                 !- Name
  MediumSmooth,                           !- Roughness
  0.019,                                  !- Thickness {m}
  0.16,                                   !- Conductivity {W/m-K}
  800,                                    !- Density {kg/m3}
  1090,                                   !- Specific Heat {J/kg-K}
  0.9,                                    !- Thermal Absorptance
  0.4;                                    !- Solar Absorptance

OS:Material:AirGap,
  {4e7567a5-67c0-4442-8c53-180a45b6437e}, !- Handle
  Material Air Gap 2,                     !- Name
  0.15;                                   !- Thermal Resistance {m2-K/W}

OS:Construction,
  {d927d7b4-739c-4705-8f67-a16cb0822c56}, !- Handle
  Interior Wall,                          !- Name
  ,                                       !- Surface Rendering Name
  {6091bc7f-85dc-4b70-8da1-88add63e3ca6}, !- Layer 1
  {4e7567a5-67c0-4442-8c53-180a45b6437e}, !- Layer 2
  {6091bc7f-85dc-4b70-8da1-88add63e3ca6}; !- Layer 3

OS:Material,
  {676055c7-565f-44c3-8e55-76ca4d41194d}, !- Handle
  M01 100mm brick,                        !- Name
  MediumRough,                            !- Roughness
  0.1016,                                 !- Thickness {m}
  0.89,                                   !- Conductivity {W/m-K}
  1920,                                   !- Density {kg/m3}
  790,                                    !- Specific Heat {J/kg-K}
  0.9,                                    !- Thermal Absorptance
  0.7;                                    !- Solar Absorptance

OS:Material,
  {4295a6ca-57b2-4f04-bd2a-c481902a5952}, !- Handle
  M15 200mm heavyweight concrete,         !- Name
  MediumRough,                            !- Roughness
  0.2032,                                 !- Thickness {m}
  1.95,                                   !- Conductivity {W/m-K}
  2240,                                   !- Density {kg/m3}
  900,                                    !- Specific Heat {J/kg-K}
  0.9,                                    !- Thermal Absorptance
  0.7;                                    !- Solar Absorptance

OS:Material,
  {b97d79da-cde2-4b3c-8b3a-7e11dc2d9b56}, !- Handle
  I02 50mm insulation board,              !- Name
  MediumRough,                            !- Roughness
  0.0508,                                 !- Thickness {m}
  0.03,                                   !- Conductivity {W/m-K}
  43,                                     !- Density {kg/m3}
  1210,                                   !- Specific Heat {J/kg-K}
  0.9,                                    !- Thermal Absorptance
  0.7;                                    !- Solar Absorptance

OS:Construction,
  {9b5a355d-ed11-427d-9435-3efbd518d89f}, !- Handle
  Exterior Wall,                          !- Name
  ,                                       !- Surface Rendering Name
  {676055c7-565f-44c3-8e55-76ca4d41194d}, !- Layer 1
  {4295a6ca-57b2-4f04-bd2a-c481902a5952}, !- Layer 2
  {b97d79da-cde2-4b3c-8b3a-7e11dc2d9b56}, !- Layer 3
  {4e7567a5-67c0-4442-8c53-180a45b6437e}, !- Layer 4
  {6091bc7f-85dc-4b70-8da1-88add63e3ca6}; !- Layer 5

OS:DefaultConstructionSet,
  {25f008f9-8720-4fb4-9357-533f2eaac68f}, !- Handle
  Default Construction Set 1,             !- Name
  {955a6682-d7fa-4bda-b24b-ab0c3f9f27c5}, !- Default Exterior Surface Constructions Name
  {d2fefc49-7717-45e1-8c07-e672c666f495}, !- Default Interior Surface Constructions Name
  {f7b6285c-9e7b-401d-a083-c2b060f9c03e}, !- Default Ground Contact Surface Constructions Name
  {e120aed7-3c2e-43a7-92ea-2d5e163999b3}, !- Default Exterior SubSurface Constructions Name
  {94e63858-8332-4c0f-bbb3-99765cddaf04}, !- Default Interior SubSurface Constructions Name
  ,                                       !- Interior Partition Construction Name
  ,                                       !- Space Shading Construction Name
  ,                                       !- Building Shading Construction Name
  ;                                       !- Site Shading Construction Name

OS:DefaultSurfaceConstructions,
  {955a6682-d7fa-4bda-b24b-ab0c3f9f27c5}, !- Handle
  Default Surface Constructions 1,        !- Name
  ,                                       !- Floor Construction Name
  {9b5a355d-ed11-427d-9435-3efbd518d89f}, !- Wall Construction Name
  ;                                       !- Roof Ceiling Construction Name

OS:DefaultSurfaceConstructions,
  {d2fefc49-7717-45e1-8c07-e672c666f495}, !- Handle
  Default Surface Constructions 2,        !- Name
  {397a0880-1d17-4622-bfea-26fbb99770ba}, !- Floor Construction Name
  {d927d7b4-739c-4705-8f67-a16cb0822c56}, !- Wall Construction Name
  {d09f5c5e-59fd-471b-b552-8544dacb3b58}; !- Roof Ceiling Construction Name

OS:DefaultSurfaceConstructions,
  {f7b6285c-9e7b-401d-a083-c2b060f9c03e}, !- Handle
  Default Surface Constructions 3,        !- Name
  ,                                       !- Floor Construction Name
  ,                                       !- Wall Construction Name
  ;                                       !- Roof Ceiling Construction Name

OS:DefaultSubSurfaceConstructions,
  {e120aed7-3c2e-43a7-92ea-2d5e163999b3}, !- Handle
  Default Sub Surface Constructions 1,    !- Name
  ,                                       !- Fixed Window Construction Name
  ,                                       !- Operable Window Construction Name
  ,                                       !- Door Construction Name
  ,                                       !- Glass Door Construction Name
  ,                                       !- Overhead Door Construction Name
  ,                                       !- Skylight Construction Name
  ,                                       !- Tubular Daylight Dome Construction Name
  ;                                       !- Tubular Daylight Diffuser Construction Name

OS:DefaultSubSurfaceConstructions,
  {94e63858-8332-4c0f-bbb3-99765cddaf04}, !- Handle
  Default Sub Surface Constructions 2,    !- Name
  ,                                       !- Fixed Window Construction Name
  ,                                       !- Operable Window Construction Name
  ,                                       !- Door Construction Name
  ,                                       !- Glass Door Construction Name
  ,                                       !- Overhead Door Construction Name
  ,                                       !- Skylight Construction Name
  ,                                       !- Tubular Daylight Dome Construction Name
  ;                                       !- Tubular Daylight Diffuser Construction Name

OS:Space,
  {22276ba3-aa56-45ba-9797-95470f15a260}, !- Handle
  Office_space,                           !- Name
  {b6d72013-6eef-4f3c-a594-16133cc97cf3}, !- Space Type Name
  {25f008f9-8720-4fb4-9357-533f2eaac68f}, !- Default Construction Set Name
  ,                                       !- Default Schedule Set Name
  ,                                       !- Direction of Relative North {deg}
  ,                                       !- X Origin {m}
  ,                                       !- Y Origin {m}
  ,                                       !- Z Origin {m}
  {385724f3-1393-46ab-8940-6615d5f71607}, !- Building Story Name
  {860c01b7-253c-43f4-966a-0065cb130314}; !- Thermal Zone Name

OS:SpaceType,
  {b6d72013-6eef-4f3c-a594-16133cc97cf3}, !- Handle
  Office:OpenOffice:Office,               !- Name
  ,                                       !- Default Construction Set Name
  {9619062e-6a96-4aef-b9dc-1d0777d8846c}, !- Default Schedule Set Name
  ,                                       !- Group Rendering Name
  {fb596fb3-1bec-47e4-8766-5f845b2d9d6f}; !- Design Specification Outdoor Air Object Name

OS:DefaultScheduleSet,
  {9619062e-6a96-4aef-b9dc-1d0777d8846c}, !- Handle
  Office_DefaultScheduleSet,              !- Name
  {59a8fc34-61ff-426c-8c91-679bc76a084e}, !- Hours of Operation Schedule Name
  ,                                       !- Number of People Schedule Name
  {92b3a405-548a-4dc9-941f-37ebd0fe1cb5}, !- People Activity Level Schedule Name
  {05424a88-b04b-4156-89b7-05ac37960e8a}, !- Lighting Schedule Name
  {b2d3e452-2fca-409b-bd97-091fb5c8e693}, !- Electric Equipment Schedule Name
  ,                                       !- Gas Equipment Schedule Name
  ,                                       !- Hot Water Equipment Schedule Name
  {66cf89ba-01f8-4c0c-94fb-096c4ffbf8be}, !- Infiltration Schedule Name
  ,                                       !- Steam Equipment Schedule Name
  ;                                       !- Other Equipment Schedule Name

OS:ScheduleTypeLimits,
  {0becd8c4-bf9b-4f13-b12e-aaaab97ed911}, !- Handle
  Schedule Type Limits 1,                 !- Name
  0,                                      !- Lower Limit Value
  1,                                      !- Upper Limit Value
  CONTINUOUS;                             !- Numeric Type

OS:Schedule:Year,
  {66cf89ba-01f8-4c0c-94fb-096c4ffbf8be}, !- Handle
  Medium Office Infil Quarter On,         !- Name
  {0becd8c4-bf9b-4f13-b12e-aaaab97ed911}, !- Schedule Type Limits Name
  1,                                      !- Month 1
  3,                                      !- Day 1
  {ad974ff0-9774-464d-a680-56f4a5ad1454}, !- Week Schedule Until Date 1
  12,                                     !- Month 2
  31,                                     !- Day 2
  {dfacd105-1b52-4376-bbcc-791fcd817ae8}; !- Week Schedule Until Date 2

OS:Schedule:Week,
  {ad974ff0-9774-464d-a680-56f4a5ad1454}, !- Handle
  Schedule:Week:Daily {10ec3e5a-5294-46cc-8ada-f12e209007b8}, !- Name
  ,                                       !- Schedule Rendering Name
  {99912c4a-ecf7-4113-b8c2-6803dc3dbe8a}, !- Sunday Schedule:Day Name
  {99912c4a-ecf7-4113-b8c2-6803dc3dbe8a}, !- Monday Schedule:Day Name
  {99912c4a-ecf7-4113-b8c2-6803dc3dbe8a}, !- Tuesday Schedule:Day Name
  {99912c4a-ecf7-4113-b8c2-6803dc3dbe8a}, !- Wednesday Schedule:Day Name
  {99912c4a-ecf7-4113-b8c2-6803dc3dbe8a}, !- Thursday Schedule:Day Name
  {99912c4a-ecf7-4113-b8c2-6803dc3dbe8a}, !- Friday Schedule:Day Name
  {dc1fb835-346a-405a-98a5-bd91c7066904}, !- Saturday Schedule:Day Name
  {99912c4a-ecf7-4113-b8c2-6803dc3dbe8a}, !- Holiday Schedule:Day Name
  {5f5f4287-d12a-47d1-bd6f-0ed8eba9d42a}, !- SummerDesignDay Schedule:Day Name
  {d56297e1-982d-473f-846e-c00fef4dc8b1}, !- WinterDesignDay Schedule:Day Name
  {99912c4a-ecf7-4113-b8c2-6803dc3dbe8a}, !- CustomDay1 Schedule:Day Name
  {99912c4a-ecf7-4113-b8c2-6803dc3dbe8a}; !- CustomDay2 Schedule:Day Name

OS:Schedule:Day,
  {99912c4a-ecf7-4113-b8c2-6803dc3dbe8a}, !- Handle
  Medium Office Infil Quarter On Default Schedule, !- Name
  {0becd8c4-bf9b-4f13-b12e-aaaab97ed911}, !- Schedule Type Limits Name
  ,                                       !- Interpolate to Timestep
  6,                                      !- Hour 1
  0,                                      !- Minute 1
  1,                                      !- Value Until Time 1
  22,                                     !- Hour 2
  0,                                      !- Minute 2
  0.25,                                   !- Value Until Time 2
  24,                                     !- Hour 3
  0,                                      !- Minute 3
  1;                                      !- Value Until Time 3

OS:Schedule:Day,
  {dc1fb835-346a-405a-98a5-bd91c7066904}, !- Handle
  Medium Office Infil Quarter On Rule 2 Day Schedule, !- Name
  {0becd8c4-bf9b-4f13-b12e-aaaab97ed911}, !- Schedule Type Limits Name
  ,                                       !- Interpolate to Timestep
  6,                                      !- Hour 1
  0,                                      !- Minute 1
  1,                                      !- Value Until Time 1
  18,                                     !- Hour 2
  0,                                      !- Minute 2
  0.25,                                   !- Value Until Time 2
  24,                                     !- Hour 3
  0,                                      !- Minute 3
  1;                                      !- Value Until Time 3

OS:Schedule:Day,
  {5f5f4287-d12a-47d1-bd6f-0ed8eba9d42a}, !- Handle
  Medium Office Infil Quarter On Summer Design Day, !- Name
  {0becd8c4-bf9b-4f13-b12e-aaaab97ed911}, !- Schedule Type Limits Name
  ,                                       !- Interpolate to Timestep