
OS:Version,
  {e72667e8-aadd-46af-9ba7-c62257270412}, !- Handle
  2.4.0;                                  !- Version Identifier

OS:RunPeriod,
  {f3a53c1b-be6d-4b65-a7f2-a4e152ea0611}, !- Handle
  Run Period 1,                           !- Name
  12,                                     !- Begin Month
  15,                                     !- Begin Day of Month
  12,                                     !- End Month
  21,                                     !- End Day of Month
  ,                                       !- Use Weather File Holidays and Special Days
  ,                                       !- Use Weather File Daylight Saving Period
  ,                                       !- Apply Weekend Holiday Rule
  ,                                       !- Use Weather File Rain Indicators
  ,                                       !- Use Weather File Snow Indicators
  ;                                       !- Number of Times Runperiod to be Repeated

OS:Timestep,
  {0ef94809-1024-468e-aff4-6ae62ddab8bc}, !- Handle
  6;                                      !- Number of Timesteps per Hour

OS:Building,
  {d3525467-a29b-4684-972d-b446073d6dbc}, !- Handle
  Building 1,                             !- Name
  ,                                       !- Building Sector Type
  0,                                      !- North Axis {deg}
  ,                                       !- Nominal Floor to Floor Height {m}
  ,                                       !- Space Type Name
  ,                                       !- Default Construction Set Name
  ;                                       !- Default Schedule Set Name

OS:Site,
  {55bba212-222b-4fdc-8825-ebaf5a0a7c46}, !- Handle
  Chicago Ohare Intl Ap	USA,              !- Name
  41.98,                                  !- Latitude {deg}
  -87.92,                                 !- Longitude {deg}
  -6,                                     !- Time Zone {hr}
  201,                                    !- Elevation {m}
  City;                                   !- Terrain

OS:WeatherFile,
  {f66480fb-ac10-4b02-bb7d-69006b0a48ed}, !- Handle
  Chicago Ohare Intl Ap,                  !- City
  IL,                                     !- State Province Region
  USA,                                    !- Country
  TMY3,                                   !- Data Source
  725300,                                 !- WMO Number
  41.98,                                  !- Latitude {deg}
  -87.92,                                 !- Longitude {deg}
  -6,                                     !- Time Zone {hr}
  201,                                    !- Elevation {m}
  file:///c:/ladybug/USA_IL_Chicago-OHare.Intl.AP.725300_TMY3/USA_IL_Chicago-OHare.Intl.AP.725300_TMY3.epw, !- Url
  C254B53F;                               !- Checksum

OS:SimulationControl,
  {a1eedef2-6483-4f51-a715-2e14ba16ceaf}, !- Handle
  Yes,                                    !- Do Zone Sizing Calculation
  Yes,                                    !- Do System Sizing Calculation
  Yes,                                    !- Do Plant Sizing Calculation
  No,                                     !- Run Simulation for Sizing Periods
  Yes,                                    !- Run Simulation for Weather File Run Periods
  ,                                       !- Loads Convergence Tolerance Value
  ,                                       !- Temperature Convergence Tolerance Value {deltaC}
  FullInteriorAndExteriorWithReflections; !- Solar Distribution

OS:ShadowCalculation,
  {3e868a99-4173-43fb-9fbf-78a646e44558}, !- Handle
  30,                                     !- Calculation Frequency
  3000;                                   !- Maximum Figures in Shadow Overlap Calculations

OS:Sizing:Parameters,
  {a60cba64-0953-4669-ab2c-ad1ce57412b6}, !- Handle
  1.25,                                   !- Heating Sizing Factor
  1.15;                                   !- Cooling Sizing Factor

OS:SizingPeriod:DesignDay,
  {b5e12320-3c33-45de-9040-8ac52a6dbede}, !- Handle
  Chicago Ohare Intl Ap Ann Htg 99.6% Condns DB, !- Name
  -20,                                    !- Maximum Dry-Bulb Temperature {C}
  0,                                      !- Daily Dry-Bulb Temperature Range {deltaC}
  -20,                                    !- Humidity Indicating Conditions at Maximum Dry-Bulb
  98934,                                  !- Barometric Pressure {Pa}
  4.9,                                    !- Wind Speed {m/s}
  270,                                    !- Wind Direction {deg}
  0,                                      !- Sky Clearness
  0,                                      !- Rain Indicator
  0,                                      !- Snow Indicator
  21,                                     !- Day of Month
  1,                                      !- Month
  WinterDesignDay,                        !- Day Type
  0,                                      !- Daylight Saving Time Indicator
  Wetbulb,                                !- Humidity Indicating Type
  ,                                       !- Humidity Indicating Day Schedule Name
  DefaultMultipliers,                     !- Dry-Bulb Temperature Range Modifier Type
  ,                                       !- Dry-Bulb Temperature Range Modifier Schedule Name
  ASHRAEClearSky;                         !- Solar Model Indicator

OS:SizingPeriod:DesignDay,
  {3d433136-29c5-434d-9746-31951ba8c3d1}, !- Handle
  Chicago Ohare Intl Ap Ann Htg Wind 99.6% Condns WS=>MCDB, !- Name
  -3.5,                                   !- Maximum Dry-Bulb Temperature {C}
  0,                                      !- Daily Dry-Bulb Temperature Range {deltaC}
  -3.5,                                   !- Humidity Indicating Conditions at Maximum Dry-Bulb
  98934,                                  !- Barometric Pressure {Pa}
  12.4,                                   !- Wind Speed {m/s}
  270,                                    !- Wind Direction {deg}
  0,                                      !- Sky Clearness
  0,                                      !- Rain Indicator
  0,                                      !- Snow Indicator
  21,                                     !- Day of Month
  1,                                      !- Month
  WinterDesignDay,                        !- Day Type
  0,                                      !- Daylight Saving Time Indicator
  Wetbulb,                                !- Humidity Indicating Type
  ,                                       !- Humidity Indicating Day Schedule Name
  DefaultMultipliers,                     !- Dry-Bulb Temperature Range Modifier Type
  ,                                       !- Dry-Bulb Temperature Range Modifier Schedule Name
  ASHRAEClearSky;                         !- Solar Model Indicator

OS:SizingPeriod:DesignDay,
  {558718c3-24d3-4dac-b5f3-582f08de61d2}, !- Handle
  Chicago Ohare Intl Ap Ann Hum_n 99.6% Condns DP=>MCDB, !- Name
  -19.2,                                  !- Maximum Dry-Bulb Temperature {C}
  0,                                      !- Daily Dry-Bulb Temperature Range {deltaC}
  -25.7,                                  !- Humidity Indicating Conditions at Maximum Dry-Bulb
  98934,                                  !- Barometric Pressure {Pa}
  4.9,                                    !- Wind Speed {m/s}
  270,                                    !- Wind Direction {deg}
  0,                                      !- Sky Clearness
  0,                                      !- Rain Indicator
  0,                                      !- Snow Indicator
  21,                                     !- Day of Month
  1,                                      !- Month
  WinterDesignDay,                        !- Day Type
  0,                                      !- Daylight Saving Time Indicator
  Dewpoint,                               !- Humidity Indicating Type
  ,                                       !- Humidity Indicating Day Schedule Name
  DefaultMultipliers,                     !- Dry-Bulb Temperature Range Modifier Type
  ,                                       !- Dry-Bulb Temperature Range Modifier Schedule Name
  ASHRAEClearSky;                         !- Solar Model Indicator

OS:SizingPeriod:DesignDay,
  {a6b01044-2398-49c6-a234-913cafef3924}, !- Handle
  Chicago Ohare Intl Ap Ann Clg .4% Condns DB=>MWB, !- Name
  33.3,                                   !- Maximum Dry-Bulb Temperature {C}
  10.5,                                   !- Daily Dry-Bulb Temperature Range {deltaC}
  23.7,                                   !- Humidity Indicating Conditions at Maximum Dry-Bulb
  98934,                                  !- Barometric Pressure {Pa}
  5.2,                                    !- Wind Speed {m/s}
  230,                                    !- Wind Direction {deg}
  0,                                      !- Sky Clearness
  0,                                      !- Rain Indicator
  0,                                      !- Snow Indicator
  21,                                     !- Day of Month
  7,                                      !- Month
  SummerDesignDay,                        !- Day Type
  0,                                      !- Daylight Saving Time Indicator
  Wetbulb,                                !- Humidity Indicating Type
  ,                                       !- Humidity Indicating Day Schedule Name
  DefaultMultipliers,                     !- Dry-Bulb Temperature Range Modifier Type
  ,                                       !- Dry-Bulb Temperature Range Modifier Schedule Name
  ASHRAETau,                              !- Solar Model Indicator
  ,                                       !- Beam Solar Day Schedule Name
  ,                                       !- Diffuse Solar Day Schedule Name
  0.455,                                  !- ASHRAE Taub {dimensionless}
  2.05;                                   !- ASHRAE Taud {dimensionless}

OS:SizingPeriod:DesignDay,
  {b9ba9413-aa49-4585-82b0-cba0b73e3b36}, !- Handle
  Chicago Ohare Intl Ap Ann Clg .4% Condns WB=>MDB, !- Name
  31.2,                                   !- Maximum Dry-Bulb Temperature {C}
  10.5,                                   !- Daily Dry-Bulb Temperature Range {deltaC}
  25.5,                                   !- Humidity Indicating Conditions at Maximum Dry-Bulb
  98934,                                  !- Barometric Pressure {Pa}
  5.2,                                    !- Wind Speed {m/s}
  230,                                    !- Wind Direction {deg}
  0,                                      !- Sky Clearness
  0,                                      !- Rain Indicator
  0,                                      !- Snow Indicator
  21,                                     !- Day of Month
  7,                                      !- Month
  SummerDesignDay,                        !- Day Type
  0,                                      !- Daylight Saving Time Indicator
  Wetbulb,                                !- Humidity Indicating Type
  ,                                       !- Humidity Indicating Day Schedule Name
  DefaultMultipliers,                     !- Dry-Bulb Temperature Range Modifier Type
  ,                                       !- Dry-Bulb Temperature Range Modifier Schedule Name
  ASHRAETau,                              !- Solar Model Indicator
  ,                                       !- Beam Solar Day Schedule Name
  ,                                       !- Diffuse Solar Day Schedule Name
  0.455,                                  !- ASHRAE Taub {dimensionless}
  2.05;                                   !- ASHRAE Taud {dimensionless}

OS:SizingPeriod:DesignDay,
  {2ce52410-aaef-4d9a-ad2a-4ad1a0ee4f6d}, !- Handle
  Chicago Ohare Intl Ap Ann Clg .4% Condns DP=>MDB, !- Name
  28.9,                                   !- Maximum Dry-Bulb Temperature {C}
  10.5,                                   !- Daily Dry-Bulb Temperature Range {deltaC}
  23.8,                                   !- Humidity Indicating Conditions at Maximum Dry-Bulb
  98934,                                  !- Barometric Pressure {Pa}
  5.2,                                    !- Wind Speed {m/s}
  230,                                    !- Wind Direction {deg}
  0,                                      !- Sky Clearness
  0,                                      !- Rain Indicator
  0,                                      !- Snow Indicator
  21,                                     !- Day of Month
  7,                                      !- Month
  SummerDesignDay,                        !- Day Type
  0,                                      !- Daylight Saving Time Indicator
  Dewpoint,                               !- Humidity Indicating Type
  ,                                       !- Humidity Indicating Day Schedule Name
  DefaultMultipliers,                     !- Dry-Bulb Temperature Range Modifier Type
  ,                                       !- Dry-Bulb Temperature Range Modifier Schedule Name
  ASHRAETau,                              !- Solar Model Indicator
  ,                                       !- Beam Solar Day Schedule Name
  ,                                       !- Diffuse Solar Day Schedule Name
  0.455,                                  !- ASHRAE Taub {dimensionless}
  2.05;                                   !- ASHRAE Taud {dimensionless}

OS:SizingPeriod:DesignDay,
  {a4a4f9f7-8914-47d0-b03b-ce08bc8cc542}, !- Handle
  Chicago Ohare Intl Ap Ann Clg .4% Condns Enth=>MDB, !- Name
  31.4,                                   !- Maximum Dry-Bulb Temperature {C}
  10.5,                                   !- Daily Dry-Bulb Temperature Range {deltaC}
  79200,                                  !- Humidity Indicating Conditions at Maximum Dry-Bulb
  98934,                                  !- Barometric Pressure {Pa}
  5.2,                                    !- Wind Speed {m/s}
  230,                                    !- Wind Direction {deg}
  0,                                      !- Sky Clearness
  0,                                      !- Rain Indicator
  0,                                      !- Snow Indicator
  21,                                     !- Day of Month
  7,                                      !- Month
  SummerDesignDay,                        !- Day Type
  0,                                      !- Daylight Saving Time Indicator
  Enthalpy,                               !- Humidity Indicating Type
  ,                                       !- Humidity Indicating Day Schedule Name
  DefaultMultipliers,                     !- Dry-Bulb Temperature Range Modifier Type
  ,                                       !- Dry-Bulb Temperature Range Modifier Schedule Name
  ASHRAETau,                              !- Solar Model Indicator
  ,                                       !- Beam Solar Day Schedule Name
  ,                                       !- Diffuse Solar Day Schedule Name
  0.455,                                  !- ASHRAE Taub {dimensionless}
  2.05;                                   !- ASHRAE Taud {dimensionless}

OS:BuildingStory,
  {e8bf125a-a4a3-47a0-aa81-3ce681ef98b2}, !- Handle
  Building Story 1,                       !- Name
  0,                                      !- Nominal Z Coordinate {m}
  ,                                       !- Nominal Floor to Floor Height {m}
  ,                                       !- Default Construction Set Name
  ,                                       !- Default Schedule Set Name
  ;                                       !- Group Rendering Name

OS:Material,
  {101d2d67-7b15-49f4-ba8b-85dc02af5bc7}, !- Handle
  F16 Acoustic tile,                      !- Name
  MediumSmooth,                           !- Roughness
  0.0191,                                 !- Thickness {m}
  0.06,                                   !- Conductivity {W/m-K}
  368,                                    !- Density {kg/m3}
  590.000000000002,                       !- Specific Heat {J/kg-K}
  0.9,                                    !- Thermal Absorptance
  0.3;                                    !- Solar Absorptance

OS:Material:AirGap,
  {634815c8-294c-4aaa-80c4-4f74fef685e5}, !- Handle
  Material Air Gap 1,                     !- Name
  0.18;                                   !- Thermal Resistance {m2-K/W}

OS:Material,
  {5e3ffa6a-cf9e-4142-b4d0-6180ed1d9c2f}, !- Handle
  M11 100mm lightweight concrete,         !- Name
  MediumRough,                            !- Roughness
  0.1016,                                 !- Thickness {m}
  0.53,                                   !- Conductivity {W/m-K}
  1280,                                   !- Density {kg/m3}
  840.000000000002,                       !- Specific Heat {J/kg-K}
  0.9,                                    !- Thermal Absorptance
  0.5;                                    !- Solar Absorptance

OS:Construction,
  {16026acd-e472-49a5-983f-3e67ea3f8261}, !- Handle
  Interior Floor,                         !- Name
  ,                                       !- Surface Rendering Name
  {101d2d67-7b15-49f4-ba8b-85dc02af5bc7}, !- Layer 1
  {634815c8-294c-4aaa-80c4-4f74fef685e5}, !- Layer 2
  {5e3ffa6a-cf9e-4142-b4d0-6180ed1d9c2f}; !- Layer 3

OS:WindowMaterial:Glazing,
  {50829783-58ed-4779-8142-f94d7b70c538}, !- Handle
  CLEAR 3MM,                              !- Name
  SpectralAverage,                        !- Optical Data Type
  ,                                       !- Window Glass Spectral Data Set Name
  0.00299999999999999,                    !- Thickness {m}
  0.837,                                  !- Solar Transmittance at Normal Incidence
  0.075,                                  !- Front Side Solar Reflectance at Normal Incidence
  0,                                      !- Back Side Solar Reflectance at Normal Incidence
  0.898,                                  !- Visible Transmittance at Normal Incidence
  0.081,                                  !- Front Side Visible Reflectance at Normal Incidence
  0,                                      !- Back Side Visible Reflectance at Normal Incidence
  0,                                      !- Infrared Transmittance at Normal Incidence
  0.84,                                   !- Front Side Infrared Hemispherical Emissivity
  0.84,                                   !- Back Side Infrared Hemispherical Emissivity
  0.9,                                    !- Conductivity {W/m-K}
  1;                                      !- Dirt Correction Factor for Solar and Visible Transmittance

OS:Construction,
  {7be8502e-0ebf-4b02-bd8d-86eba1858d50}, !- Handle
  SINGLEPANE,                             !- Name
  ,                                       !- Surface Rendering Name
  {50829783-58ed-4779-8142-f94d7b70c538}; !- Layer 1

OS:Material,
  {64bad87e-83d8-411f-873b-86e92161a74e}, !- Handle
  G01a 19mm gypsum board,                 !- Name
  MediumSmooth,                           !- Roughness
  0.019,                                  !- Thickness {m}
  0.16,                                   !- Conductivity {W/m-K}
  800,                                    !- Density {kg/m3}
  1090,                                   !- Specific Heat {J/kg-K}
  0.9,                                    !- Thermal Absorptance
  0.4;                                    !- Solar Absorptance

OS:Material:AirGap,
  {d64fc701-c97f-466b-86e3-ec547bda7d63}, !- Handle
  Material Air Gap 2,                     !- Name
  0.15;                                   !- Thermal Resistance {m2-K/W}

OS:Construction,
  {91dd6d0b-fa65-4332-9c9b-b42d77b4240b}, !- Handle
  Interior Wall,                          !- Name
  ,                                       !- Surface Rendering Name
  {64bad87e-83d8-411f-873b-86e92161a74e}, !- Layer 1
  {d64fc701-c97f-466b-86e3-ec547bda7d63}, !- Layer 2
  {64bad87e-83d8-411f-873b-86e92161a74e}; !- Layer 3

OS:Material,
  {c14bd207-91b8-4e24-ae35-94ea64c17728}, !- Handle
  M01 100mm brick,                        !- Name
  MediumRough,                            !- Roughness
  0.1016,                                 !- Thickness {m}
  0.89,                                   !- Conductivity {W/m-K}
  1920,                                   !- Density {kg/m3}
  790,                                    !- Specific Heat {J/kg-K}
  0.9,                                    !- Thermal Absorptance
  0.7;                                    !- Solar Absorptance

OS:Material,
  {159fa832-5e50-4838-a1c6-8e1358e10c19}, !- Handle
  M15 200mm heavyweight concrete,         !- Name
  MediumRough,                            !- Roughness
  0.2032,                                 !- Thickness {m}
  1.95,                                   !- Conductivity {W/m-K}
  2240,                                   !- Density {kg/m3}
  900,                                    !- Specific Heat {J/kg-K}
  0.9,                                    !- Thermal Absorptance
  0.7;                                    !- Solar Absorptance

OS:Material,
  {b32d4a7f-8e4c-45aa-acc5-665ae873a93d}, !- Handle
  I02 50mm insulation board,              !- Name
  MediumRough,                            !- Roughness
  0.0508,                                 !- Thickness {m}
  0.03,                                   !- Conductivity {W/m-K}
  43,                                     !- Density {kg/m3}
  1210,                                   !- Specific Heat {J/kg-K}
  0.9,                                    !- Thermal Absorptance
  0.7;                                    !- Solar Absorptance

OS:Construction,
  {55840813-ea81-4b2e-86f5-30d030dab3c2}, !- Handle
  Exterior Wall,                          !- Name
  ,                                       !- Surface Rendering Name
  {c14bd207-91b8-4e24-ae35-94ea64c17728}, !- Layer 1
  {159fa832-5e50-4838-a1c6-8e1358e10c19}, !- Layer 2
  {b32d4a7f-8e4c-45aa-acc5-665ae873a93d}, !- Layer 3
  {d64fc701-c97f-466b-86e3-ec547bda7d63}, !- Layer 4
  {64bad87e-83d8-411f-873b-86e92161a74e}; !- Layer 5

OS:Construction,
  {db88e1ab-58d4-4737-a47a-794c11108938}, !- Handle
  Exterior Roof,                          !- Name
  ,                                       !- Surface Rendering Name
  {5e3ffa6a-cf9e-4142-b4d0-6180ed1d9c2f}, !- Layer 1
  {634815c8-294c-4aaa-80c4-4f74fef685e5}, !- Layer 2
  {101d2d67-7b15-49f4-ba8b-85dc02af5bc7}; !- Layer 3

OS:DefaultConstructionSet,
  {2e0c6ed7-2acc-4d1a-863d-5699cccf744c}, !- Handle
  Default Construction Set 1,             !- Name
  {e81b3084-f8a2-4c32-9ca2-e3bdccb1460c}, !- Default Exterior Surface Constructions Name
  {c3b54f0e-6c9a-40e8-b525-835ad10da10b}, !- Default Interior Surface Constructions Name
  {ebefc15b-f21a-4f12-a0a4-7f98dbe21354}, !- Default Ground Contact Surface Constructions Name
  {c09da0b2-6ab9-4b44-87e6-3f5becda912a}, !- Default Exterior SubSurface Constructions Name
  {a102ec18-fb20-49fc-bb33-0104f36f2d4b}, !- Default Interior SubSurface Constructions Name
  ,                                       !- Interior Partition Construction Name
  ,                                       !- Space Shading Construction Name
  ,                                       !- Building Shading Construction Name
  ;                                       !- Site Shading Construction Name

OS:DefaultSurfaceConstructions,
  {e81b3084-f8a2-4c32-9ca2-e3bdccb1460c}, !- Handle
  Default Surface Constructions 1,        !- Name
  ,                                       !- Floor Construction Name
  {55840813-ea81-4b2e-86f5-30d030dab3c2}, !- Wall Construction Name
  {db88e1ab-58d4-4737-a47a-794c11108938}; !- Roof Ceiling Construction Name

OS:DefaultSurfaceConstructions,
  {c3b54f0e-6c9a-40e8-b525-835ad10da10b}, !- Handle
  Default Surface Constructions 2,        !- Name
  {16026acd-e472-49a5-983f-3e67ea3f8261}, !- Floor Construction Name
  {91dd6d0b-fa65-4332-9c9b-b42d77b4240b}, !- Wall Construction Name
  ;                                       !- Roof Ceiling Construction Name

OS:DefaultSurfaceConstructions,
  {ebefc15b-f21a-4f12-a0a4-7f98dbe21354}, !- Handle
  Default Surface Constructions 3,        !- Name
  ,                                       !- Floor Construction Name
  ,                                       !- Wall Construction Name
  ;                                       !- Roof Ceiling Construction Name

OS:DefaultSubSurfaceConstructions,
  {c09da0b2-6ab9-4b44-87e6-3f5becda912a}, !- Handle
  Default Sub Surface Constructions 1,    !- Name
  {7be8502e-0ebf-4b02-bd8d-86eba1858d50}, !- Fixed Window Construction Name
  ,                                       !- Operable Window Construction Name
  ,                                       !- Door Construction Name
  ,                                       !- Glass Door Construction Name
  ,                                       !- Overhead Door Construction Name
  ,                                       !- Skylight Construction Name
  ,                                       !- Tubular Daylight Dome Construction Name
  ;                                       !- Tubular Daylight Diffuser Construction Name

OS:DefaultSubSurfaceConstructions,
  {a102ec18-fb20-49fc-bb33-0104f36f2d4b}, !- Handle
  Default Sub Surface Constructions 2,    !- Name
  ,                                       !- Fixed Window Construction Name
  ,                                       !- Operable Window Construction Name
  ,                                       !- Door Construction Name
  ,                                       !- Glass Door Construction Name
  ,                                       !- Overhead Door Construction Name
  ,                                       !- Skylight Construction Name
  ,                                       !- Tubular Daylight Dome Construction Name
  ;                                       !- Tubular Daylight Diffuser Construction Name

OS:Space,
  {deef7a5f-5053-4d65-88f1-9eddcc7a04ed}, !- Handle
  zone_0_space,                           !- Name
  {0d454d01-b792-4814-b125-0fe6412b1853}, !- Space Type Name
  {2e0c6ed7-2acc-4d1a-863d-5699cccf744c}, !- Default Construction Set Name
  ,                                       !- Default Schedule Set Name
  ,                                       !- Direction of Relative North {deg}
  ,                                       !- X Origin {m}
  ,                                       !- Y Origin {m}
  ,                                       !- Z Origin {m}
  {e8bf125a-a4a3-47a0-aa81-3ce681ef98b2}, !- Building Story Name
  {8ca41f01-dca8-417d-a3cb-b7b99dba0e7b}; !- Thermal Zone Name

OS:SpaceType,
  {0d454d01-b792-4814-b125-0fe6412b1853}, !- Handle
  MidriseApartment:Apartment:zone_0,      !- Name
  ,                                       !- Default Construction Set Name
  {1d307150-1fa1-4bad-953c-1c43c312cc3d}, !- Default Schedule Set Name
  ,                                       !- Group Rendering Name
  {3852ab9b-48c5-4ac2-8c9d-8eab79bd816f}; !- Design Specification Outdoor Air Object Name

OS:DefaultScheduleSet,
  {1d307150-1fa1-4bad-953c-1c43c312cc3d}, !- Handle
  zone_0_DefaultScheduleSet,              !- Name
  {42ebbc51-c6d3-4cf6-bac9-b542aae5f904}, !- Hours of Operation Schedule Name
  ,                                       !- Number of People Schedule Name
  {6a4041c1-6bbc-4588-8672-c8e081cfc945}, !- People Activity Level Schedule Name
  {204c0c7c-7e2b-4e7d-ab14-9650adf9c7c9}, !- Lighting Schedule Name
  {14031613-0c3e-4399-b706-ebe07987c103}, !- Electric Equipment Schedule Name
  ,                                       !- Gas Equipment Schedule Name
  ,                                       !- Hot Water Equipment Schedule Name
  {a6d37831-1c8f-49f1-9f87-ce160fe8689c}, !- Infiltration Schedule Name
  ,                                       !- Steam Equipment Schedule Name
  ;                                       !- Other Equipment Schedule Name

OS:ScheduleTypeLimits,
  {c5cecf41-e375-40be-9a0f-bacf4edf0da7}, !- Handle
  Schedule Type Limits 1,                 !- Name
  0,                                      !- Lower Limit Value
  1,                                      !- Upper Limit Value
  CONTINUOUS;                             !- Numeric Type

OS:Schedule:Year,
  {a6d37831-1c8f-49f1-9f87-ce160fe8689c}, !- Handle
  MidriseApartment Infil,                 !- Name
  {c5cecf41-e375-40be-9a0f-bacf4edf0da7}, !- Schedule Type Limits Name
  12,                                     !- Month 1
  31,                                     !- Day 1
  {9c09ab13-2609-4cd3-8282-6d815aa75365}; !- Week Schedule Until Date 1

OS:Schedule:Week,
  {9c09ab13-2609-4cd3-8282-6d815aa75365}, !- Handle
  Schedule:Week:Daily {1b2951d3-8a6d-40b0-a578-f54d283818bd}, !- Name
  ,                                       !- Schedule Rendering Name
  {b00cf44a-5258-4d1e-9706-cd1e0ef36199}, !- Sunday Schedule:Day Name
  {b00cf44a-5258-4d1e-9706-cd1e0ef36199}, !- Monday Schedule:Day Name
  {b00cf44a-5258-4d1e-9706-cd1e0ef36199}, !- Tuesday Schedule:Day Name
  {b00cf44a-5258-4d1e-9706-cd1e0ef36199}, !- Wednesday Schedule:Day Name
  {b00cf44a-5258-4d1e-9706-cd1e0ef36199}, !- Thursday Schedule:Day Name
  {b00cf44a-5258-4d1e-9706-cd1e0ef36199}, !- Friday Schedule:Day Name
  {b00cf44a-5258-4d1e-9706-cd1e0ef36199}, !- Saturday Schedule:Day Name
  {b00cf44a-5258-4d1e-9706-cd1e0ef36199}, !- Holiday Schedule:Day Name
  {a06e1026-a68a-4cc7-bf0c-9dbc771a3c6e}, !- SummerDesignDay Schedule:Day Name
  {051720a6-03eb-406d-8b9f-a14116d8b186}, !- WinterDesignDay Schedule:Day Name
  {b00cf44a-5258-4d1e-9706-cd1e0ef36199}, !- CustomDay1 Schedule:Day Name
  {b00cf44a-5258-4d1e-9706-cd1e0ef36199}; !- CustomDay2 Schedule:Day Name

OS:Schedule:Day,
  {b00cf44a-5258-4d1e-9706-cd1e0ef36199}, !- Handle
  MidriseApartment Infil Default Schedule, !- Name
  {c5cecf41-e375-40be-9a0f-bacf4edf0da7}, !- Schedule Type Limits Name
  ,                                       !- Interpolate to Timestep
  24,                                     !- Hour 1
  0,                                      !- Minute 1
  1;                                      !- Value Until Time 1

OS:Schedule:Day,